22
Properties=species:S:1:pos:R:3 pbc="F F F" nomad_entry_id="zz9M-MdCuYHd-8z-a-mqiZhsAGxb"
C        2.91710830      -0.65698020      -0.44970863
C        1.67797784      -0.03331754      -1.10512005
S        0.80665506       1.14600143      -0.00378680
S       -0.09839409      -0.06723510       1.38590629
C       -1.87758429       0.36328962       1.27774089
C       -2.55307910      -0.07802991      -0.01862498
N       -4.01467881       0.22168324       0.02856271
N        3.87342974       0.38233316       0.02255044
H        2.65997014      -1.26778216       0.42078489
H        3.46196377      -1.27849248      -1.16665391
H        0.98072993      -0.81094284      -1.43331403
H        1.98247243       0.52581010      -1.99655108
H       -2.36820703      -0.12550855       2.12701727
H       -1.98852055       1.44282912       1.42865600
H       -2.46760207      -1.15758611      -0.17561500
H       -2.16085242       0.45183752      -0.89119764
H       -4.48396915      -0.07335853      -0.84083202
H       -4.21099398       1.22753856       0.13880315
H       -4.49474236      -0.27026213       0.79709840
H        4.24641687       0.95933332      -0.74433918
H        3.42877523       1.02012863       0.69996197
H        4.68312455      -0.04152331       0.49866132
